PRIMVEC
       14.7477302551         0.0000000000         0.0000000000
        0.0000000000        14.7477302551         0.0000000000
        0.0000000000         0.0000000000         30.0
PRIMCOORD
92 1
Au     1.474772938         3.968022776         2.557276860
Au     1.474772938         3.968022776         9.782159481
Au     4.424319252         9.076786304         2.557276860
Au     4.424319252         9.076786304         9.782159481
Au     7.373865128         3.968022776         2.557276860
Au     7.373865128         3.968022776         9.782159481
Au    10.323410124         9.076786304         2.557276860
Au    10.323410124         9.076786304         9.782159481
Au     7.373865128         7.373865128         4.965570774
Au     7.373865128         7.373865128        12.190453835
Au     4.424319252         5.670943952         7.373864688
Au     7.373865128        10.779707480         7.373864688
Au    10.323410124         5.670943952         7.373864688
Au    13.272956878        10.779707480         7.373864688
Au     5.899091750         4.819484243         4.965570774
Au     5.899091750         4.819484243        12.190453835
Au     8.848638505         9.928246892         4.965570774
Au     8.848638505         9.928246892        12.190453835
Au     5.899091750         8.225326595         7.373864688
Au    11.798183501         8.225326595         7.373864688
Au     2.949545875         6.522404979         2.557276860
Au     2.949545875         6.522404979         9.782159481
Au     8.848638505         6.522404979         2.557276860
Au     8.848638505         6.522404979         9.782159481
Au     2.949545875         4.819484243         4.965570774
Au     2.949545875         4.819484243        12.190453835
Au     5.899091750         9.928246892         4.965570774
Au     5.899091750         9.928246892        12.190453835
Au     8.848638505         4.819484243         4.965570774
Au     8.848638505         4.819484243        12.190453835
Au    11.798183501         9.928246892         4.965570774
Au    11.798183501         9.928246892        12.190453835
Au     8.848638505         8.225326595         7.373864688
Au     5.899091750         6.522404979         2.557276860
Au     5.899091750         6.522404979         9.782159481
Au     4.424319252         7.373865128         4.965570774
Au     4.424319252         7.373865128        12.190453835
Au    10.323410124         7.373865128         4.965570774
Au    10.323410124         7.373865128        12.190453835
Au     7.373865128         5.670943952         7.373864688
Au    10.323410124        10.779707480         7.373864688
Au     4.424319252         3.968022776         2.557276860
Au     4.424319252         3.968022776         9.782159481
Au     7.373865128         9.076786304         2.557276860
Au     7.373865128         9.076786304         9.782159481
Au     1.474772938         3.968022776        -2.557276860
Au     1.474772938         3.968022776        -9.782159481
Au     4.424319252         9.076786304        -2.557276860
Au     4.424319252         9.076786304        -9.782159481
Au     7.373865128         3.968022776        -2.557276860
Au     7.373865128         3.968022776        -9.782159481
Au    10.323410124         9.076786304        -2.557276860
Au    10.323410124         9.076786304        -9.782159481
Au     7.373865128         7.373865128        -4.965570774
Au     7.373865128         7.373865128        -12.190453835
Au     4.424319252         5.670943952        -7.373864688
Au     7.373865128        10.779707480        -7.373864688
Au    10.323410124         5.670943952        -7.373864688
Au    13.272956878        10.779707480        -7.373864688
Au     5.899091750         4.819484243        -4.965570774
Au     5.899091750         4.819484243        -12.190453835
Au     8.848638505         9.928246892        -4.965570774
Au     8.848638505         9.928246892        -12.190453835
Au     5.899091750         8.225326595        -7.373864688
Au    11.798183501         8.225326595        -7.373864688
Au     2.949545875         6.522404979        -2.557276860
Au     2.949545875         6.522404979        -9.782159481
Au     8.848638505         6.522404979        -2.557276860
Au     8.848638505         6.522404979        -9.782159481
Au     2.949545875         4.819484243        -4.965570774
Au     2.949545875         4.819484243        -12.190453835
Au     5.899091750         9.928246892        -4.965570774
Au     5.899091750         9.928246892        -12.190453835
Au     8.848638505         4.819484243        -4.965570774
Au     8.848638505         4.819484243        -12.190453835
Au    11.798183501         9.928246892        -4.965570774
Au    11.798183501         9.928246892        -12.190453835
Au     8.848638505         8.225326595        -7.373864688
Au     5.899091750         6.522404979        -2.557276860
Au     5.899091750         6.522404979        -9.782159481
Au     4.424319252         7.373865128        -4.965570774
Au     4.424319252         7.373865128        -12.190453835
Au    10.323410124         7.373865128        -4.965570774
Au    10.323410124         7.373865128        -12.190453835
Au     7.373865128         5.670943952        -7.373864688
Au    10.323410124        10.779707480        -7.373864688
Au     4.424319252         3.968022776        -2.557276860
Au     4.424319252         3.968022776        -9.782159481
Au     7.373865128         9.076786304        -2.557276860
Au     7.373865128         9.076786304        -9.782159481
Au     1.474772938         3.968022776         0.5
Au     1.474772938         3.968022776         -0.5


